<?xml version="1.0" encoding="UTF-8"?>

<!-- generated on 2025-05-22 23:27:38 by Eclipse SUMO sumo Version 1.22.0
-->

<sumoConfiguration xmlns:xsi="http://www.w3.org/2001/XMLSchema-instance" xsi:noNamespaceSchemaLocation="http://sumo.dlr.de/xsd/sumoConfiguration.xsd">

    <input>
        <net-file value="route.net.xml"/>
        <route-files value="route.rou.xml"/>
        <additional-files value="route.add.xml"/>
    </input>

</sumoConfiguration>
