<?xml version="1.0" encoding="UTF-8"?>

<!-- generated on 2025-06-24 17:59:35 by Eclipse SUMO netedit Version 1.22.0
-->

<routes xmlns:xsi="http://www.w3.org/2001/XMLSchema-instance" xsi:noNamespaceSchemaLocation="http://sumo.dlr.de/xsd/routes_file.xsd">
    <!-- Vehicles, persons and containers (sorted by depart) -->
    <trip id="t_0" depart="0.00" from="E8" to="E7"/>
    <trip id="t_1" depart="20.00" from="E8" to="E7" via="E0 E1 E2 E3 E4 E5 E6"/>
</routes>
